YYYY MM DD HH   DURATION(hhhh) #RECORDS 
 YYYY MM DD HH MM DURATION(hhmm) LAT LON HGT(m) RATE(/h) AREA(m2) HEAT(w) 
 2012 12 30 0 9999 1 
 2012 12 30 0 0 2400 46.75544 -122.85815 200 340000 75 1e+07 
