YYYY MM DD HH   DURATION(hhhh) #RECORDS 
 YYYY MM DD HH MM DURATION(hhmm) LAT LON HGT(m) RATE(/h) AREA(m2) HEAT(w) 
 2012 1 3 0 9999 3 
 2012 1 3 0 0 2400 39.28684 -96.11821 0 0 0 0 
 2012 1 3 0 0 2400 39.28681 -96.11721 0 0 0 0 
 2012 1 3 0 0 2400 39.28681 -96.11618 0 0 0 0