YYYY MM DD HH   DURATION(hhhh) #RECORDS 
 YYYY MM DD HH MM DURATION(hhmm) LAT LON HGT(m) RATE(/h) AREA(m2) HEAT(w) 
 2012 12 30 0 9999 3 
 2012 12 30 0 0 2400 39.28684 -96.11821 174.96 557748.97 47.17 0 
 2012 12 30 0 0 2400 39.28681 -96.11721 174.96 557758.97 47.17 0 
 2012 12 30 0 0 2400 39.28681 -96.11618 174.96 568829.78 47.17 0