YYYY MM DD HH   DURATION(hhhh) #RECORDS 
 YYYY MM DD HH MM DURATION(hhmm) LAT LON HGT(m) RATE(/h) AREA(m2) HEAT(w) 
 2012 1 1 0 9999 1 
 2012 1 1 0 0 2400 36.99781 -84.59239 243.84 147264.5 23.64 2396931.6 
 2012 1 1 0 0 2400 3 
 2012 1 1 0 0 2400 3